**$ENCRYPTED_LIB
**$INTERFACE
* PSpice Model Editor - Version 16.2.0
*$
* LM5110-1M
*****************************************************************************
*  (C) Copyright 2013 Texas Instruments Incorporated. All rights reserved.
*****************************************************************************
** This model is designed as an aid for customers of Texas Instruments.
** TI and its licensors and suppliers make no warranties, either expressed
** or implied, with respect to this model, including the warranties of 
** merchantability or fitness for a particular purpose.  The model is
** provided solely on an "as is" basis.  The entire risk as to its quality
** and performance is with the customer
*****************************************************************************
*
** Released by: WEBENCH Design Center, Texas Instruments Inc.
* Part: LM5110-1M
* Date: 07FEB2013
* Model Type: TRANSIENT
* Simulator: PSPICE
* Simulator Version: 16.2.0.p001
* EVM Order Number:
* EVM Users Guide: 
* Datasheet: SNVS255A-MAY 2004-REVISED MAY 2004
* Model Version: Final 1.00
*
*****************************************************************************
* Updates:
*
* Final 1.00
* Release to Web.
*****************************************************************************
.SUBCKT LM5110_1M  IN_A IN_B nSHDN IN_REF VCC OUT_A OUT_B VEE
$CDNENCSTART
eee8c5c7a2bc4b01f045f303678664e7916da0bae22e8cb0bba041dd67c69ce448ea70148a9ac1670c8926c1ac5057c8ccfcd77bf87ca9dc2dd683608431bcfe
3562310fcea4af5fc702d572f128fcccc024418ababba8cab058b2fecd65751eaca1ee943098059d83ceff36fd3fcdaf6d96f8d9789812905351a8f2e59f00bb
9afa1f10a7f457eac702d572f128fcccaf8927fe239a2f1861ac06a210cf123472e011cabd64f2eab86c688bb853dcb2777826bf79a31538cd6c0ca13bd0004a
857620ce20ef86cbc702d572f128fcccc024418ababba8cab058b2fecd65751e817640b357a8dc27b490adff5b53d7e203ee9cb03889b9146552b02331766202
e9dd452c4e6cfebec702d572f128fccc1b1bb554f6a1fd780887792542db58c4f3bbac9f571631c711d1780d88fe10fcb5439f6d2961023ebf9d5021d28692ab
e513bba6d3228b87c702d572f128fccc32aa05e89fcd92830887792542db58c4f3bbac9f571631c711d1780d88fe10fcb5439f6d2961023ebf9d5021d28692ab
12501895e3f794d90c3e3368a1d249b5b2b42432dcf2eac71b8aff43bb69baddcd39d6ba8d255f47c14ae2c0b69dc3dc97afad1e79d736b2cb1c8514a6285751
3bdfb3bcf8540f57c702d572f128fcccb438842e017754e2d7e894664d22e89564c8f51dffc96317af50cc386bb8daf77efb9312a79c54540845398fc24f40a9
394197bedeb77a710c3e3368a1d249b5aa75265da76233ccf383814eb36dda19661c6c5a6c3f664fe81da792fe806fe287377a83c6d6cdaecbb22792ac98c1d8
afe317ae10e98155c702d572f128fccccd49450e285effe198e243f4fa073f53f81a5355a274c79e14def8934ee547f858ccc9cd7db851f0fd6d016852692f96
d9a277d30cda19a891eb1076db4598239feffa25de850b6940b56f66d965b60e5c7fe970d997d22d0c9ba4cdd5892c760ff7b697d86eb6710dd5ab568c24e484
0dea85bdd2f61705c702d572f128fccc38c35ca73d97f27338ebe403cc5ad36ab490adff5b53d7e203ee9cb03889b914e9e965de549e9a528d4a237decdee81f
c43ca65fb3926f3baa3c83bc8b430528028d9a1c86d6c8609daa44853893063fb86c688bb853dcb2777826bf79a31538c8b44ee11451207bba3cbf314f3fc609
065d26286aaf2f12070ad78826a995de77680a216046d81539ea6df6c90fd5c56db5e9720fee95f7af50cc386bb8daf77efb9312a79c54540845398fc24f40a9
615a28c46d723740c702d572f128fcccb882896851205e335416d15606c6cd7f661c6c5a6c3f664fe81da792fe806fe287377a83c6d6cdaecbb22792ac98c1d8
2a76c18f665e8c27c702d572f128fcccfcc3bae94904fa4b48d5a93385c9a2c9faca85d0862a74fbf39a3e1efa36c9454f7ecfc7377adf8549bf6dca2ecdfd7c
14cab94d08b3cbe5eeb09492a34b3bae765ecbe74be4a070256e0321d88248ea6b901a86f4d92558955a3d41bdf856e5821edd2a6202441e424f67cce1457a7a
ddf70eae3b592905c702d572f128fccc66c7717a0706ca6c7846bb229c069aee52c1be449c93753cb86c688bb853dcb2777826bf79a31538cd6c0ca13bd0004a
635adb6c201b6ba1070ad78826a995de1fc2e3544ee52e88571870e43ae29872b490adff5b53d7e203ee9cb03889b914e9e965de549e9a528d4a237decdee81f
240cf6a83072ff1a1acdef34d66cba5c71e029877b86353f95b85fef37c80b5afaca85d0862a74fbf39a3e1efa36c9454f7ecfc7377adf8549bf6dca2ecdfd7c
7ba51542b25fb554eeb09492a34b3bae765ecbe74be4a070256e0321d88248ea6b901a86f4d92558955a3d41bdf856e5821edd2a6202441e424f67cce1457a7a
e83d563d614d5ce90c3e3368a1d249b59fe7d7524f20dc0244659e519603abfc661c6c5a6c3f664fe81da792fe806fe287377a83c6d6cdaecbb22792ac98c1d8
705d459f50f7a08cc702d572f128fccce5c26d9ea708664db058b2fecd65751e72e011cabd64f2eab86c688bb853dcb2777826bf79a31538cd6c0ca13bd0004a
2a0dde369b0e03c9b4ec94a6f615309f977d86175ef6bfc1fc71d0c06e5c51d0c7aca84365baa247ca94a3426cbac6fa2cc9c415a9f75b325b0f81211b67e8f3
88b96b7c831faa4a97198c1734d7491af3bbac9f571631c711d1780d88fe10fcb5439f6d2961023ee72e52900bb83a01b7b5962932929efb4552a612c0b9dce7
bbf0a766f49a242c2637e9cac2aa5cea2cecad1ebf804c4b2473511ee33aa3b9e81da792fe806fe287377a83c6d6cdae4d8a75b05649fc6aadcb2f15eb065a4a
e66fa780b10d0304c702d572f128fcccb2d04264a38b63abd84cd472fbb2b013125ae45a630d8ea2fc227e81e6defffe6d96f8d9789812905351a8f2e59f00bb
2e781867abaac5ce80f6e56c964fd02249b59e0c0c795f876b1ef51f119f47c62c3480dd37bbaf9320c357dc59a1b83d67138a307a6c221b7ec09cef15c57fb0
1933952b4dcad44c0e6abf038e4a421df3bbac9f571631c711d1780d88fe10fcb5439f6d2961023ee72e52900bb83a01b7b5962932929efb4552a612c0b9dce7
8767f397bff4c3a731bbfa71d5efb6fe54c59879677df54cb490adff5b53d7e203ee9cb03889b914e9e965de549e9a520ea7ff8e4f690dc6d6ab029560802215
86ad213343ec82a9c702d572f128fccc7403babbd2195c2e5416d15606c6cd7f661c6c5a6c3f664fe81da792fe806fe287377a83c6d6cdaecbb22792ac98c1d8
a3f576b848cd34f9c702d572f128fccce85124e38e228ebf0e77a3906909651d5fe7f295684bb00de81da792fe806fe287377a83c6d6cdaecbb22792ac98c1d8
e0bee0f3fadd6724c702d572f128fccc34e6c0229119eb0eec2e8b64a2ef3559817640b357a8dc27b490adff5b53d7e203ee9cb03889b9146552b02331766202
1fcbc249eb947153aa3c83bc8b43052865e6b4e78e415c609daa44853893063fb86c688bb853dcb2777826bf79a31538c8b44ee11451207bba3cbf314f3fc609
23ee73d6065f36411acdef34d66cba5c71e029877b86353f70aba4997cd90a3a3938a86cf3cb0a6591eb1076db4598239feffa25de850b69715d7f5b7af9a4d7
e644fc3843e7ff1bc702d572f128fcccc7aca84365baa24778d58588a266667f6ccf5ebdcbe5a56c765ecbe74be4a070256e0321d88248eac3d42bb96c37f617
81a9746d786d11d680f6e56c964fd02249b59e0c0c795f876b1ef51f119f47c6638dfd3437cd4cff6afce35d78d9819b67138a307a6c221b7ec09cef15c57fb0
1933952b4dcad44c0e6abf038e4a421df3bbac9f571631c711d1780d88fe10fcb5439f6d2961023ee72e52900bb83a01b7b5962932929efb4552a612c0b9dce7
8767f397bff4c3a731bbfa71d5efb6fe54c59879677df54cb490adff5b53d7e203ee9cb03889b914e9e965de549e9a520ea7ff8e4f690dc6d6ab029560802215
644136b10815c823c702d572f128fccc9c6c45212a04931861ac06a210cf1234125ae45a630d8ea2178a5319eaac11886d96f8d9789812905351a8f2e59f00bb
0b00c72b7c2c95cdc702d572f128fcccbbcea522f404e9a4f8deb62621dea5b8faca85d0862a74fb79ae083693e686672bd2f231bbc173e549bf6dca2ecdfd7c
14cab94d08b3cbe5eeb09492a34b3bae765ecbe74be4a070256e0321d88248ea6b901a86f4d92558955a3d41bdf856e5821edd2a6202441e424f67cce1457a7a
301e882fc75603991acdef34d66cba5c965586b2cf8c6e0f40976f98171e9972faca85d0862a74fb79ae083693e686672bd2f231bbc173e549bf6dca2ecdfd7c
7ba51542b25fb554eeb09492a34b3bae765ecbe74be4a070256e0321d88248ea6b901a86f4d92558955a3d41bdf856e5821edd2a6202441e424f67cce1457a7a
b90e0c5fe970b387c702d572f128fccc9c6c45212a04931861ac06a210cf1234817640b357a8dc27b490adff5b53d7e203ee9cb03889b9146552b02331766202
f0141b5f35912e42c702d572f128fccc935736779d3f07324b83a848024bc97df81a5355a274c79e14def8934ee547f858ccc9cd7db851f0fd6d016852692f96
d9a277d30cda19a891eb1076db4598239feffa25de850b6940b56f66d965b60e5c7fe970d997d22d0c9ba4cdd5892c760ff7b697d86eb6710dd5ab568c24e484
0abb8c42c110d7c5dc5a1b22284dea7fd54f79a6ea2c0e7ee570163c7927eced1c325eadde98a885454dbe83bfaf9f4796cc4b5209c35bf7d2c0ea702584563a
e776e9b255bda08c55383805c37d9f78cd39d6ba8d255f47c14ae2c0b69dc3dc97afad1e79d736b2f87554f13b958eadb1a99a3225cf740d79d6abc61ef4d687
8767f397bff4c3a731bbfa71d5efb6fe3868963439e44b76af50cc386bb8daf77efb9312a79c5454e80c2ae03018d1b2544c5f1599ed44cd442a72f658d47270
5ff44a992c4e2ee3dc5a1b22284dea7f99ef49dd8aa334f991497627a970a04d9168eea3cac456aad68614e29e648a5c96cc4b5209c35bf7d2c0ea702584563a
e776e9b255bda08c55383805c37d9f78cd39d6ba8d255f47c14ae2c0b69dc3dc97afad1e79d736b2f87554f13b958eadb1a99a3225cf740d79d6abc61ef4d687
8767f397bff4c3a731bbfa71d5efb6fe3868963439e44b76af50cc386bb8daf77efb9312a79c5454e80c2ae03018d1b2544c5f1599ed44cd442a72f658d47270
76772fcaed53044f070ad78826a995de77680a216046d8156735a969899340756db5e9720fee95f7af50cc386bb8daf77efb9312a79c54540845398fc24f40a9
a367670a286b82a7c702d572f128fccc89490e29e941f1737846bb229c069aeeaca1ee943098059d46e87c733eb342fe6d96f8d9789812905351a8f2e59f00bb
717cdf892ff6b6ff1acdef34d66cba5c71e029877b86353fb4192196719eea3e3938a86cf3cb0a6591eb1076db4598239feffa25de850b69715d7f5b7af9a4d7
93d3808648446fd7c702d572f128fccc025c73205cbdeaabd84cd472fbb2b01352c1be449c93753cb86c688bb853dcb2777826bf79a31538cd6c0ca13bd0004a
5c2e262d493b312fc702d572f128fccce42f60f23815808f710de132401a0e66817640b357a8dc27b490adff5b53d7e203ee9cb03889b9146552b02331766202
6525da4cfd71409dc702d572f128fccc2474f01e7938eacd0e77a3906909651d17f28092ac9fbb5f91eb1076db4598239feffa25de850b69715d7f5b7af9a4d7
c6ada2f6665016dfc702d572f128fccc2ccf6be765d266b60e77a3906909651d17f28092ac9fbb5f91eb1076db4598239feffa25de850b69715d7f5b7af9a4d7
32c994efcc2d922e0c3e3368a1d249b56c143d8ec9b005d1953b368ab7b8ef2c1bd54e7aad543e64138799f400d152f2a286ab8191b33007c27a0fe47ba19b0a
4651b4c215cbe2b1a4c6d548bbf1c2dfaf50cc386bb8daf77efb9312a79c5454e80c2ae03018d1b2544c5f1599ed44cdc8bcade423bdb09485cd9978ffadcbd0
8767f397bff4c3a731bbfa71d5efb6fe3868963439e44b76af50cc386bb8daf77efb9312a79c5454e80c2ae03018d1b2544c5f1599ed44cd442a72f658d47270
7aff1ed1750180621acdef34d66cba5c0ab1a27017de8a010a833649a8dbd83daf50cc386bb8daf77efb9312a79c5454e80c2ae03018d1b28faadc599783a0bb
$CDNENCFINISH
.ENDS LM5110_1M
*$
.model NMOS01 NMOS
$CDNENCSTART
eee8c5c7a2bc4b01f045f303678664e7916da0bae22e8cb0bba041dd67c69ce448ea70148a9ac1670c8926c1ac5057c8ccfcd77bf87ca9dc2dd683608431bcfe
534e9285d53ff19cc3912d948dc29ad5f3bbac9f571631c711d1780d88fe10fcb5439f6d2961023ee72e52900bb83a01b7b5962932929efb4552a612c0b9dce7
0e9e043e7de95851904113dd21328954cd39d6ba8d255f47c14ae2c0b69dc3dc97afad1e79d736b2f87554f13b958eadb1a99a3225cf740d79d6abc61ef4d687
04c3383d0d929910da1ad6791efe82f4e61acd0acf2132ec765ecbe74be4a070256e0321d88248ea6b901a86f4d92558955a3d41bdf856e56824a27be12c086d
$CDNENCFINISH
*$
.model PMOS01 PMOS
$CDNENCSTART
eee8c5c7a2bc4b01f045f303678664e7916da0bae22e8cb0bba041dd67c69ce448ea70148a9ac1670c8926c1ac5057c8ccfcd77bf87ca9dc2dd683608431bcfe
534e9285d53ff19cdcf0cbbe1900b339b86c688bb853dcb2777826bf79a31538c8b44ee11451207b89acfbd81950a975b36d2ef1d64733227d00600d0eb7087a
0e9e043e7de95851c0adc7dd3b64cb89b490adff5b53d7e203ee9cb03889b914e9e965de549e9a520ea7ff8e4f690dc6784a9b22d6164539d78840e66f006b67
04c3383d0d929910da1ad6791efe82f4e61acd0acf2132ec765ecbe74be4a070256e0321d88248ea6b901a86f4d92558955a3d41bdf856e56824a27be12c086d
$CDNENCFINISH
*$
.SUBCKT DELAY INP OUT PARAMS: RINP = 1k DELAY = 10n 
$CDNENCSTART
eee8c5c7a2bc4b01f045f303678664e7916da0bae22e8cb0bba041dd67c69ce448ea70148a9ac1670c8926c1ac5057c8ccfcd77bf87ca9dc2dd683608431bcfe
c6839ad2626cdd7bdb10312422bb2dfeeeb09492a34b3bae765ecbe74be4a070256e0321d88248ea6b901a86f4d92558955a3d41bdf856e56824a27be12c086d
65cec6a4510b93d60cc5ee892f7e41004199f76773da55031d514d71dd5585d066d4ab4e7831dd9faf50cc386bb8daf77efb9312a79c54540845398fc24f40a9
8067d5ae21e7acbc452a14c82ac5dc5da95587187b658e83b86c688bb853dcb2777826bf79a31538c8b44ee11451207b89acfbd81950a975836c9f9e5f8835f8
c2f3e219e8aba5b6749d13634498f34bf3a4615b6920c7c82d18c8e81f51a5cb3e10a24a415fea9ceeb09492a34b3bae765ecbe74be4a07012d99c64a7bca08d
$CDNENCFINISH
.ENDS DELAY
*$
.SUBCKT COMPHYS_BASIC_GEN INP INM HYS OUT PARAMS: VDD=1 VSS=0 VTHRESH=0.5	
$CDNENCSTART
eee8c5c7a2bc4b01f045f303678664e7916da0bae22e8cb0bba041dd67c69ce448ea70148a9ac1670c8926c1ac5057c8ccfcd77bf87ca9dc2dd683608431bcfe
9132b7121104d4358be44c41ab888f41b6e3a1568843d867cd39d6ba8d255f47c14ae2c0b69dc3dc97afad1e79d736b2f87554f13b958eaddc612334b859096f
70d49a25931fcad5af5f0f227a33dfc56b574213c15e8d8904d73209bd6cb354e07469d76c73f504727902e71a3e75d8bb77e20fe987edd8405d560afe35fad1
d1579de13894cc53749d13634498f34b2814ec203481f38f6485690991963efc688dc2cfc32ec3a9609956094a2f05290a470a0f2f4eda3471f46bcbf663cb56
c985c90e830fff94cd3e984f262414e0e81da792fe806fe287377a83c6d6cdae4d8a75b05649fc6ac16210ba455f34404c0811f4a3325cf1c40a2a10bc1a938e
1fdb31c906bbcd77456f8bc0066f76d4765ecbe74be4a070256e0321d88248ea6b901a86f4d92558955a3d41bdf856e5821edd2a6202441e424f67cce1457a7a
13142c038a62aa158605de5fd7113a4cb490adff5b53d7e203ee9cb03889b914e9e965de549e9a520ea7ff8e4f690dc6784a9b22d6164539d78840e66f006b67
$CDNENCFINISH
.ENDS COMPHYS_BASIC_GEN
*$
.SUBCKT AND3_BASIC_GEN A B C Y PARAMS: VDD=1 VSS=0 VTHRESH=0.5 
$CDNENCSTART
eee8c5c7a2bc4b01f045f303678664e7916da0bae22e8cb0bba041dd67c69ce448ea70148a9ac1670c8926c1ac5057c8ccfcd77bf87ca9dc2dd683608431bcfe
f305b7cfa07651615a9037c8c42a602b94aebb18efc1b73c4a0534bc16c6b751d67091752c09698a1541fe9d381cc675950270b333ddc05f6816f8af0ba84290
ce312808b0a91175dcf306adebf133c07e1930d0547716ccaf50cc386bb8daf77efb9312a79c5454e80c2ae03018d1b2544c5f1599ed44cd442a72f658d47270
49482642e74b34f5dcf306adebf133c01a6c7500361cb5a45652e10015a645e7eeb09492a34b3bae765ecbe74be4a070256e0321d88248eac3d42bb96c37f617
bd9831b9881f0b92ac8467ae24b57436f3bbac9f571631c711d1780d88fe10fcb5439f6d2961023ee72e52900bb83a01b7b5962932929efb4552a612c0b9dce7
02f2959404528fbdf9c373dcdf93616b91eb1076db4598239feffa25de850b6940b56f66d965b60e5c7fe970d997d22d0c9ba4cdd5892c76f0696a333805267c
$CDNENCFINISH
.ENDS AND3_BASIC_GEN
*$
